data/W/Loads.dss
New Load.1500652-service_point1500652 bus1=7054.1.2.3 kV=0.41500000000000004 Vminpu=0.7 Vmaxpu=1.3 model=1 kW=0.0 kvar=0.0 Phases=3
New Load.1865453-service_point1865453 bus1=8667.1.2.3 kV=0.41500000000000004 Vminpu=0.7 Vmaxpu=1.3 model=1 kW=0.0 kvar=0.0 Phases=3
New Load.1865454-service_point1865454 bus1=8670.1.2.3 kV=0.41500000000000004 Vminpu=0.7 Vmaxpu=1.3 model=1 kW=0.0 kvar=0.0 Phases=3
New Load.1865455-service_point1865455 bus1=8673.1.2.3 kV=0.41500000000000004 Vminpu=0.7 Vmaxpu=1.3 model=1 kW=0.0 kvar=0.0 Phases=3
New Load.1865456-service_point1865456 bus1=8674.1.2.3 kV=0.41500000000000004 Vminpu=0.7 Vmaxpu=1.3 model=1 kW=0.0 kvar=0.0 Phases=3
New Load.2477689-service_point2477689 bus1=7768.1.2.3 kV=0.41500000000000004 Vminpu=0.7 Vmaxpu=1.3 model=1 kW=0.0 kvar=0.0 Phases=3
New Load.2477712-service_point2477712 bus1=7356.1.2.3 kV=0.41500000000000004 Vminpu=0.7 Vmaxpu=1.3 model=1 kW=0.0 kvar=0.0 Phases=3
New Load.2478914-service_point2478914 bus1=7637.1.2.3 kV=0.41500000000000004 Vminpu=0.7 Vmaxpu=1.3 model=1 kW=0.0 kvar=0.0 Phases=3
New Load.2481642-service_point2481642 bus1=7455.1.2.3 kV=0.41500000000000004 Vminpu=0.7 Vmaxpu=1.3 model=1 kW=0.0 kvar=0.0 Phases=3
New Load.2481695-service_point2481695 bus1=7509.1.2.3 kV=0.41500000000000004 Vminpu=0.7 Vmaxpu=1.3 model=1 kW=0.0 kvar=0.0 Phases=3
New Load.2481917-service_point2481917 bus1=8235.1.2.3 kV=0.41500000000000004 Vminpu=0.7 Vmaxpu=1.3 model=1 kW=0.0 kvar=0.0 Phases=3
New Load.2481921-service_point2481921 bus1=8215.1.2.3 kV=0.41500000000000004 Vminpu=0.7 Vmaxpu=1.3 model=1 kW=0.0 kvar=0.0 Phases=3
New Load.2481922-service_point2481922 bus1=8214.1.2.3 kV=0.41500000000000004 Vminpu=0.7 Vmaxpu=1.3 model=1 kW=0.0 kvar=0.0 Phases=3
New Load.2482153-service_point2482153 bus1=7660.1.2.3 kV=0.41500000000000004 Vminpu=0.7 Vmaxpu=1.3 model=1 kW=0.0 kvar=0.0 Phases=3
New Load.2482191-service_point2482191 bus1=7714.1.2.3 kV=0.41500000000000004 Vminpu=0.7 Vmaxpu=1.3 model=1 kW=0.0 kvar=0.0 Phases=3
New Load.2482414-service_point2482414 bus1=7814.1.2.3 kV=0.41500000000000004 Vminpu=0.7 Vmaxpu=1.3 model=1 kW=0.0 kvar=0.0 Phases=3
New Load.2482551-service_point2482551 bus1=8794.1.2.3 kV=0.41500000000000004 Vminpu=0.7 Vmaxpu=1.3 model=1 kW=0.0 kvar=0.0 Phases=3
New Load.2482686-service_point2482686 bus1=8359.1.2.3 kV=0.41500000000000004 Vminpu=0.7 Vmaxpu=1.3 model=1 kW=0.0 kvar=0.0 Phases=3
New Load.2483055-service_point2483055 bus1=8875.1.2.3 kV=0.41500000000000004 Vminpu=0.7 Vmaxpu=1.3 model=1 kW=0.0 kvar=0.0 Phases=3
New Load.2483168-service_point2483168 bus1=8477.1.2.3 kV=0.41500000000000004 Vminpu=0.7 Vmaxpu=1.3 model=1 kW=0.0 kvar=0.0 Phases=3
New Load.2483521-service_point2483521 bus1=7266.1.2.3 kV=0.41500000000000004 Vminpu=0.7 Vmaxpu=1.3 model=1 kW=0.0 kvar=0.0 Phases=3
New Load.2483839-service_point2483839 bus1=8591.1.2.3 kV=0.41500000000000004 Vminpu=0.7 Vmaxpu=1.3 model=1 kW=0.0 kvar=0.0 Phases=3
New Load.2483840-service_point2483840 bus1=8755.1.2.3 kV=0.41500000000000004 Vminpu=0.7 Vmaxpu=1.3 model=1 kW=0.0 kvar=0.0 Phases=3
New Load.2484044-service_point2484044 bus1=7392.1.2.3 kV=0.41500000000000004 Vminpu=0.7 Vmaxpu=1.3 model=1 kW=0.0 kvar=0.0 Phases=3
New Load.2484111-service_point2484111 bus1=8176.1.2.3 kV=0.41500000000000004 Vminpu=0.7 Vmaxpu=1.3 model=1 kW=0.0 kvar=0.0 Phases=3
New Load.2484123-service_point2484123 bus1=8180.1.2.3 kV=0.41500000000000004 Vminpu=0.7 Vmaxpu=1.3 model=1 kW=0.0 kvar=0.0 Phases=3
New Load.2484124-service_point2484124 bus1=8179.1.2.3 kV=0.41500000000000004 Vminpu=0.7 Vmaxpu=1.3 model=1 kW=0.0 kvar=0.0 Phases=3
New Load.2484211-service_point2484211 bus1=7879.1.2.3 kV=0.41500000000000004 Vminpu=0.7 Vmaxpu=1.3 model=1 kW=0.0 kvar=0.0 Phases=3
New Load.2484375-service_point2484375 bus1=8873.1.2.3 kV=0.41500000000000004 Vminpu=0.7 Vmaxpu=1.3 model=1 kW=0.0 kvar=0.0 Phases=3
New Load.2484446-service_point2484446 bus1=8383.1.2.3 kV=0.41500000000000004 Vminpu=0.7 Vmaxpu=1.3 model=1 kW=0.0 kvar=0.0 Phases=3
New Load.2484447-service_point2484447 bus1=8382.1.2.3 kV=0.41500000000000004 Vminpu=0.7 Vmaxpu=1.3 model=1 kW=0.0 kvar=0.0 Phases=3
New Load.2484450-service_point2484450 bus1=8422.1.2.3 kV=0.41500000000000004 Vminpu=0.7 Vmaxpu=1.3 model=1 kW=0.0 kvar=0.0 Phases=3
New Load.2484512-service_point2484512 bus1=7035.1.2.3 kV=0.41500000000000004 Vminpu=0.7 Vmaxpu=1.3 model=1 kW=0.0 kvar=0.0 Phases=3
New Load.2484682-service_point2484682 bus1=6777.1.2.3 kV=0.41500000000000004 Vminpu=0.7 Vmaxpu=1.3 model=1 kW=0.0 kvar=0.0 Phases=3
New Load.2484718-service_point2484718 bus1=7495.1.2.3 kV=0.41500000000000004 Vminpu=0.7 Vmaxpu=1.3 model=1 kW=0.0 kvar=0.0 Phases=3
New Load.2484828-service_point2484828 bus1=7225.1.2.3 kV=0.41500000000000004 Vminpu=0.7 Vmaxpu=1.3 model=1 kW=0.0 kvar=0.0 Phases=3
New Load.2484927-service_point2484927 bus1=7997.1.2.3 kV=0.41500000000000004 Vminpu=0.7 Vmaxpu=1.3 model=1 kW=0.0 kvar=0.0 Phases=3
New Load.2484944-service_point2484944 bus1=8121.1.2.3 kV=0.41500000000000004 Vminpu=0.7 Vmaxpu=1.3 model=1 kW=0.0 kvar=0.0 Phases=3
New Load.2484945-service_point2484945 bus1=8118.1.2.3 kV=0.41500000000000004 Vminpu=0.7 Vmaxpu=1.3 model=1 kW=0.0 kvar=0.0 Phases=3
New Load.2485021-service_point2485021 bus1=7139.1.2.3 kV=0.41500000000000004 Vminpu=0.7 Vmaxpu=1.3 model=1 kW=0.0 kvar=0.0 Phases=3
New Load.2485022-service_point2485022 bus1=7138.1.2.3 kV=0.41500000000000004 Vminpu=0.7 Vmaxpu=1.3 model=1 kW=0.0 kvar=0.0 Phases=3
New Load.2485183-service_point2485183 bus1=6954.1.2.3 kV=0.41500000000000004 Vminpu=0.7 Vmaxpu=1.3 model=1 kW=0.0 kvar=0.0 Phases=3
New Load.2485197-service_point2485197 bus1=6976.1.2.3 kV=0.41500000000000004 Vminpu=0.7 Vmaxpu=1.3 model=1 kW=0.0 kvar=0.0 Phases=3
New Load.2485210-service_point2485210 bus1=7653.1.2.3 kV=0.41500000000000004 Vminpu=0.7 Vmaxpu=1.3 model=1 kW=0.0 kvar=0.0 Phases=3
New Load.2485211-service_point2485211 bus1=7652.1.2.3 kV=0.41500000000000004 Vminpu=0.7 Vmaxpu=1.3 model=1 kW=0.0 kvar=0.0 Phases=3
New Load.2485214-service_point2485214 bus1=7659.1.2.3 kV=0.41500000000000004 Vminpu=0.7 Vmaxpu=1.3 model=1 kW=0.0 kvar=0.0 Phases=3
New Load.2485305-service_point2485305 bus1=7369.1.2.3 kV=0.41500000000000004 Vminpu=0.7 Vmaxpu=1.3 model=1 kW=0.0 kvar=0.0 Phases=3
New Load.2485571-service_point2485571 bus1=7871.1.2.3 kV=0.41500000000000004 Vminpu=0.7 Vmaxpu=1.3 model=1 kW=0.0 kvar=0.0 Phases=3
New Load.2485590-service_point2485590 bus1=7901.1.2.3 kV=0.41500000000000004 Vminpu=0.7 Vmaxpu=1.3 model=1 kW=0.0 kvar=0.0 Phases=3
New Load.2485686-service_point2485686 bus1=8830.1.2.3 kV=0.41500000000000004 Vminpu=0.7 Vmaxpu=1.3 model=1 kW=0.0 kvar=0.0 Phases=3
New Load.2485789-service_point2485789 bus1=8435.1.2.3 kV=0.41500000000000004 Vminpu=0.7 Vmaxpu=1.3 model=1 kW=0.0 kvar=0.0 Phases=3
New Load.2485848-service_point2485848 bus1=7033.1.2.3 kV=0.41500000000000004 Vminpu=0.7 Vmaxpu=1.3 model=1 kW=0.0 kvar=0.0 Phases=3
New Load.2486198-service_point2486198 bus1=8297.1.2.3 kV=0.41500000000000004 Vminpu=0.7 Vmaxpu=1.3 model=1 kW=0.0 kvar=0.0 Phases=3
New Load.2486460-service_point2486460 bus1=6851.1.2.3 kV=0.41500000000000004 Vminpu=0.7 Vmaxpu=1.3 model=1 kW=0.0 kvar=0.0 Phases=3
New Load.2486464-service_point2486464 bus1=6853.1.2.3 kV=0.41500000000000004 Vminpu=0.7 Vmaxpu=1.3 model=1 kW=0.0 kvar=0.0 Phases=3
New Load.2487616-service_point2487616 bus1=7092.1.2.3 kV=0.41500000000000004 Vminpu=0.7 Vmaxpu=1.3 model=1 kW=0.0 kvar=0.0 Phases=3
New Load.2492266-service_point2492266 bus1=6745.1.2.3 kV=0.41500000000000004 Vminpu=0.7 Vmaxpu=1.3 model=1 kW=0.0 kvar=0.0 Phases=3
New Load.2501465-service_point2501465 bus1=8291.1.2.3 kV=0.41500000000000004 Vminpu=0.7 Vmaxpu=1.3 model=1 kW=0.0 kvar=0.0 Phases=3
New Load.2518580-service_point2518580 bus1=6810.1.2.3 kV=0.41500000000000004 Vminpu=0.7 Vmaxpu=1.3 model=1 kW=0.0 kvar=0.0 Phases=3
New Load.2537184-service_point2537184 bus1=8208.1.2.3 kV=0.41500000000000004 Vminpu=0.7 Vmaxpu=1.3 model=1 kW=0.0 kvar=0.0 Phases=3
New Load.2559739-service_point2559739 bus1=7017.1.2.3 kV=0.41500000000000004 Vminpu=0.7 Vmaxpu=1.3 model=1 kW=0.0 kvar=0.0 Phases=3
New Load.2560276-service_point2560276 bus1=7412.1.2.3 kV=0.41500000000000004 Vminpu=0.7 Vmaxpu=1.3 model=1 kW=0.0 kvar=0.0 Phases=3
New Load.2565487-service_point2565487 bus1=8360.1.2.3 kV=0.41500000000000004 Vminpu=0.7 Vmaxpu=1.3 model=1 kW=0.0 kvar=0.0 Phases=3
New Load.2574022-service_point2574022 bus1=7363.1.2.3 kV=0.41500000000000004 Vminpu=0.7 Vmaxpu=1.3 model=1 kW=0.0 kvar=0.0 Phases=3
New Load.2582391-service_point2582391 bus1=7502.1.2.3 kV=0.41500000000000004 Vminpu=0.7 Vmaxpu=1.3 model=1 kW=0.0 kvar=0.0 Phases=3
New Load.2589633-service_point2589633 bus1=7056.1.2.3 kV=0.41500000000000004 Vminpu=0.7 Vmaxpu=1.3 model=1 kW=0.0 kvar=0.0 Phases=3
New Load.2592105-service_point2592105 bus1=8956.1.2.3 kV=0.41500000000000004 Vminpu=0.7 Vmaxpu=1.3 model=1 kW=0.0 kvar=0.0 Phases=3
New Load.2598093-service_point2598093 bus1=8225.1.2.3 kV=0.41500000000000004 Vminpu=0.7 Vmaxpu=1.3 model=1 kW=0.0 kvar=0.0 Phases=3
New Load.2604914-service_point2604914 bus1=6858.1.2.3 kV=0.41500000000000004 Vminpu=0.7 Vmaxpu=1.3 model=1 kW=0.0 kvar=0.0 Phases=3
New Load.2610939-service_point2610939 bus1=7490.1.2.3 kV=0.41500000000000004 Vminpu=0.7 Vmaxpu=1.3 model=1 kW=0.0 kvar=0.0 Phases=3
New Load.2610972-service_point2610972 bus1=7420.1.2.3 kV=0.41500000000000004 Vminpu=0.7 Vmaxpu=1.3 model=1 kW=0.0 kvar=0.0 Phases=3
New Load.2610973-service_point2610973 bus1=7413.1.2.3 kV=0.41500000000000004 Vminpu=0.7 Vmaxpu=1.3 model=1 kW=0.0 kvar=0.0 Phases=3
New Load.2610975-service_point2610975 bus1=7416.1.2.3 kV=0.41500000000000004 Vminpu=0.7 Vmaxpu=1.3 model=1 kW=0.0 kvar=0.0 Phases=3
New Load.2610977-service_point2610977 bus1=7408.1.2.3 kV=0.41500000000000004 Vminpu=0.7 Vmaxpu=1.3 model=1 kW=0.0 kvar=0.0 Phases=3
New Load.2610979-service_point2610979 bus1=7411.1.2.3 kV=0.41500000000000004 Vminpu=0.7 Vmaxpu=1.3 model=1 kW=0.0 kvar=0.0 Phases=3
New Load.2611020-service_point2611020 bus1=8320.1.2.3 kV=0.41500000000000004 Vminpu=0.7 Vmaxpu=1.3 model=1 kW=0.0 kvar=0.0 Phases=3
New Load.2611021-service_point2611021 bus1=8321.1.2.3 kV=0.41500000000000004 Vminpu=0.7 Vmaxpu=1.3 model=1 kW=0.0 kvar=0.0 Phases=3
New Load.2611022-service_point2611022 bus1=8322.1.2.3 kV=0.41500000000000004 Vminpu=0.7 Vmaxpu=1.3 model=1 kW=0.0 kvar=0.0 Phases=3
New Load.2611023-service_point2611023 bus1=8323.1.2.3 kV=0.41500000000000004 Vminpu=0.7 Vmaxpu=1.3 model=1 kW=0.0 kvar=0.0 Phases=3
New Load.2611024-service_point2611024 bus1=8328.1.2.3 kV=0.41500000000000004 Vminpu=0.7 Vmaxpu=1.3 model=1 kW=0.0 kvar=0.0 Phases=3
New Load.2611025-service_point2611025 bus1=8331.1.2.3 kV=0.41500000000000004 Vminpu=0.7 Vmaxpu=1.3 model=1 kW=0.0 kvar=0.0 Phases=3
New Load.2611026-service_point2611026 bus1=8334.1.2.3 kV=0.41500000000000004 Vminpu=0.7 Vmaxpu=1.3 model=1 kW=0.0 kvar=0.0 Phases=3
New Load.2611027-service_point2611027 bus1=8335.1.2.3 kV=0.41500000000000004 Vminpu=0.7 Vmaxpu=1.3 model=1 kW=0.0 kvar=0.0 Phases=3
New Load.2611028-service_point2611028 bus1=8324.1.2.3 kV=0.41500000000000004 Vminpu=0.7 Vmaxpu=1.3 model=1 kW=0.0 kvar=0.0 Phases=3
New Load.2611029-service_point2611029 bus1=8325.1.2.3 kV=0.41500000000000004 Vminpu=0.7 Vmaxpu=1.3 model=1 kW=0.0 kvar=0.0 Phases=3
New Load.2611070-service_point2611070 bus1=8362.1.2.3 kV=0.41500000000000004 Vminpu=0.7 Vmaxpu=1.3 model=1 kW=0.0 kvar=0.0 Phases=3
New Load.2611071-service_point2611071 bus1=8374.1.2.3 kV=0.41500000000000004 Vminpu=0.7 Vmaxpu=1.3 model=1 kW=0.0 kvar=0.0 Phases=3
New Load.2611072-service_point2611072 bus1=8377.1.2.3 kV=0.41500000000000004 Vminpu=0.7 Vmaxpu=1.3 model=1 kW=0.0 kvar=0.0 Phases=3
New Load.2611073-service_point2611073 bus1=8378.1.2.3 kV=0.41500000000000004 Vminpu=0.7 Vmaxpu=1.3 model=1 kW=0.0 kvar=0.0 Phases=3
New Load.2611074-service_point2611074 bus1=8380.1.2.3 kV=0.41500000000000004 Vminpu=0.7 Vmaxpu=1.3 model=1 kW=0.0 kvar=0.0 Phases=3
New Load.2611075-service_point2611075 bus1=8370.1.2.3 kV=0.41500000000000004 Vminpu=0.7 Vmaxpu=1.3 model=1 kW=0.0 kvar=0.0 Phases=3
New Load.2611076-service_point2611076 bus1=8371.1.2.3 kV=0.41500000000000004 Vminpu=0.7 Vmaxpu=1.3 model=1 kW=0.0 kvar=0.0 Phases=3
New Load.2611077-service_point2611077 bus1=8372.1.2.3 kV=0.41500000000000004 Vminpu=0.7 Vmaxpu=1.3 model=1 kW=0.0 kvar=0.0 Phases=3
New Load.2611079-service_point2611079 bus1=8381.1.2.3 kV=0.41500000000000004 Vminpu=0.7 Vmaxpu=1.3 model=1 kW=0.0 kvar=0.0 Phases=3
New Load.3016489-service_point3016489 bus1=7273.1.2.3 kV=0.41500000000000004 Vminpu=0.7 Vmaxpu=1.3 model=1 kW=0.0 kvar=0.0 Phases=3
New Load.3034910-service_point3034910 bus1=6765.1.2.3 kV=0.41500000000000004 Vminpu=0.7 Vmaxpu=1.3 model=1 kW=0.0 kvar=0.0 Phases=3
New Load.3049224-service_point3049224 bus1=7019.1.2.3 kV=0.41500000000000004 Vminpu=0.7 Vmaxpu=1.3 model=1 kW=0.0 kvar=0.0 Phases=3
New Load.3049528-service_point3049528 bus1=7787.1.2.3 kV=0.41500000000000004 Vminpu=0.7 Vmaxpu=1.3 model=1 kW=0.0 kvar=0.0 Phases=3
New Load.3064337-service_point3064337 bus1=7851.1.2.3 kV=0.41500000000000004 Vminpu=0.7 Vmaxpu=1.3 model=1 kW=0.0 kvar=0.0 Phases=3
New Load.3078679-service_point3078679 bus1=7394.1.2.3 kV=0.41500000000000004 Vminpu=0.7 Vmaxpu=1.3 model=1 kW=0.0 kvar=0.0 Phases=3
New Load.3078720-service_point3078720 bus1=7315.1.2.3 kV=0.41500000000000004 Vminpu=0.7 Vmaxpu=1.3 model=1 kW=0.0 kvar=0.0 Phases=3
New Load.3078722-service_point3078722 bus1=7318.1.2.3 kV=0.41500000000000004 Vminpu=0.7 Vmaxpu=1.3 model=1 kW=0.0 kvar=0.0 Phases=3
New Load.3078723-service_point3078723 bus1=7311.1.2.3 kV=0.41500000000000004 Vminpu=0.7 Vmaxpu=1.3 model=1 kW=0.0 kvar=0.0 Phases=3
New Load.313129-service_point313129 bus1=7209.1.2.3 kV=0.41500000000000004 Vminpu=0.7 Vmaxpu=1.3 model=1 kW=0.0 kvar=0.0 Phases=3
New Load.313162-service_point313162 bus1=7212.1.2.3 kV=0.41500000000000004 Vminpu=0.7 Vmaxpu=1.3 model=1 kW=0.0 kvar=0.0 Phases=3
New Load.313163-service_point313163 bus1=7213.1.2.3 kV=0.41500000000000004 Vminpu=0.7 Vmaxpu=1.3 model=1 kW=0.0 kvar=0.0 Phases=3
New Load.313164-service_point313164 bus1=7731.1.2.3 kV=0.41500000000000004 Vminpu=0.7 Vmaxpu=1.3 model=1 kW=0.0 kvar=0.0 Phases=3
New Load.313406-service_point313406 bus1=8152.1.2.3 kV=0.41500000000000004 Vminpu=0.7 Vmaxpu=1.3 model=1 kW=0.0 kvar=0.0 Phases=3
New Load.313476-service_point313476 bus1=8027.1.2.3 kV=0.41500000000000004 Vminpu=0.7 Vmaxpu=1.3 model=1 kW=0.0 kvar=0.0 Phases=3
New Load.313518-service_point313518 bus1=8348.1.2.3 kV=0.41500000000000004 Vminpu=0.7 Vmaxpu=1.3 model=1 kW=0.0 kvar=0.0 Phases=3
New Load.313522-service_point313522 bus1=8384.1.2.3 kV=0.41500000000000004 Vminpu=0.7 Vmaxpu=1.3 model=1 kW=0.0 kvar=0.0 Phases=3
New Load.313589-service_point313589 bus1=8300.1.2.3 kV=0.41500000000000004 Vminpu=0.7 Vmaxpu=1.3 model=1 kW=0.0 kvar=0.0 Phases=3
New Load.313670-service_point313670 bus1=8825.1.2.3 kV=0.41500000000000004 Vminpu=0.7 Vmaxpu=1.3 model=1 kW=0.0 kvar=0.0 Phases=3
New Load.313694-service_point313694 bus1=8565.1.2.3 kV=0.41500000000000004 Vminpu=0.7 Vmaxpu=1.3 model=1 kW=0.0 kvar=0.0 Phases=3
New Load.313900-service_point313900 bus1=7375.1.2.3 kV=0.41500000000000004 Vminpu=0.7 Vmaxpu=1.3 model=1 kW=0.0 kvar=0.0 Phases=3
New Load.313927-service_point313927 bus1=7393.1.2.3 kV=0.41500000000000004 Vminpu=0.7 Vmaxpu=1.3 model=1 kW=0.0 kvar=0.0 Phases=3
New Load.314080-service_point314080 bus1=9018.1.2.3 kV=0.41500000000000004 Vminpu=0.7 Vmaxpu=1.3 model=1 kW=0.0 kvar=0.0 Phases=3
New Load.314089-service_point314089 bus1=9016.1.2.3 kV=0.41500000000000004 Vminpu=0.7 Vmaxpu=1.3 model=1 kW=0.0 kvar=0.0 Phases=3
New Load.314095-service_point314095 bus1=9009.1.2.3 kV=0.41500000000000004 Vminpu=0.7 Vmaxpu=1.3 model=1 kW=0.0 kvar=0.0 Phases=3
New Load.314174-service_point314174 bus1=6892.1.2.3 kV=0.41500000000000004 Vminpu=0.7 Vmaxpu=1.3 model=1 kW=0.0 kvar=0.0 Phases=3
New Load.314331-service_point314331 bus1=7013.1.2.3 kV=0.41500000000000004 Vminpu=0.7 Vmaxpu=1.3 model=1 kW=0.0 kvar=0.0 Phases=3
New Load.314352-service_point314352 bus1=7023.1.2.3 kV=0.41500000000000004 Vminpu=0.7 Vmaxpu=1.3 model=1 kW=0.0 kvar=0.0 Phases=3
New Load.314354-service_point314354 bus1=7025.1.2.3 kV=0.41500000000000004 Vminpu=0.7 Vmaxpu=1.3 model=1 kW=0.0 kvar=0.0 Phases=3
New Load.314385-service_point314385 bus1=7414.1.2.3 kV=0.41500000000000004 Vminpu=0.7 Vmaxpu=1.3 model=1 kW=0.0 kvar=0.0 Phases=3
New Load.314507-service_point314507 bus1=7589.1.2.3 kV=0.41500000000000004 Vminpu=0.7 Vmaxpu=1.3 model=1 kW=0.0 kvar=0.0 Phases=3
New Load.314558-service_point314558 bus1=7471.1.2.3 kV=0.41500000000000004 Vminpu=0.7 Vmaxpu=1.3 model=1 kW=0.0 kvar=0.0 Phases=3
New Load.314648-service_point314648 bus1=7856.1.2.3 kV=0.41500000000000004 Vminpu=0.7 Vmaxpu=1.3 model=1 kW=0.0 kvar=0.0 Phases=3
New Load.314792-service_point314792 bus1=8047.1.2.3 kV=0.41500000000000004 Vminpu=0.7 Vmaxpu=1.3 model=1 kW=0.0 kvar=0.0 Phases=3
New Load.315068-service_point315068 bus1=7877.1.2.3 kV=0.41500000000000004 Vminpu=0.7 Vmaxpu=1.3 model=1 kW=0.0 kvar=0.0 Phases=3
New Load.315078-service_point315078 bus1=7870.1.2.3 kV=0.41500000000000004 Vminpu=0.7 Vmaxpu=1.3 model=1 kW=0.0 kvar=0.0 Phases=3
New Load.315207-service_point315207 bus1=8109.1.2.3 kV=0.41500000000000004 Vminpu=0.7 Vmaxpu=1.3 model=1 kW=0.0 kvar=0.0 Phases=3
New Load.315267-service_point315267 bus1=8536.1.2.3 kV=0.41500000000000004 Vminpu=0.7 Vmaxpu=1.3 model=1 kW=0.0 kvar=0.0 Phases=3
New Load.315333-service_point315333 bus1=8314.1.2.3 kV=0.41500000000000004 Vminpu=0.7 Vmaxpu=1.3 model=1 kW=0.0 kvar=0.0 Phases=3
New Load.315503-service_point315503 bus1=6643.1.2.3 kV=0.41500000000000004 Vminpu=0.7 Vmaxpu=1.3 model=1 kW=0.0 kvar=0.0 Phases=3
New Load.315688-service_point315688 bus1=7026.1.2.3 kV=0.41500000000000004 Vminpu=0.7 Vmaxpu=1.3 model=1 kW=0.0 kvar=0.0 Phases=3
New Load.318677-service_point318677 bus1=7160.1.2.3 kV=0.41500000000000004 Vminpu=0.7 Vmaxpu=1.3 model=1 kW=0.0 kvar=0.0 Phases=3
